<?xml version="1.0" encoding="UTF-8"?>

<!-- generated on 05/22/20 16:36:46 by Eclipse SUMO netedit Version 1.3.1
<configuration xmlns:xsi="http://www.w3.org/2001/XMLSchema-instance" xsi:noNamespaceSchemaLocation="http://sumo.dlr.de/xsd/netconvertConfiguration.xsd">

    <input>
        <osm-files value="map.osm"/>
    </input>

    <output>
        <output-file value="network.net.xml"/>
    </output>

    <projection>
        <proj.utm value="true"/>
    </projection>

    <processing>
        <offset.disable-normalization value="true"/>
    </processing>

</configuration>
-->

<net version="1.3" junctionCornerDetail="5" limitTurnSpeed="5.50" xmlns:xsi="http://www.w3.org/2001/XMLSchema-instance" xsi:noNamespaceSchemaLocation="http://sumo.dlr.de/xsd/net_file.xsd">

    <location netOffset="0.00,0.00" convBoundary="654731.89,3196317.85,663497.45,3207652.81" origBoundary="76.586803,28.885251,76.678215,28.987130" projParameter="+proj=utm +zone=43 +ellps=WGS84 +datum=WGS84 +units=m +no_defs"/>

    <type id="highway.bridleway" priority="1" numLanes="1" speed="2.78" allow="pedestrian" oneway="1" width="2.00"/>
    <type id="highway.bus_guideway" priority="1" numLanes="1" speed="27.78" allow="bus" oneway="1"/>
    <type id="highway.cycleway" priority="1" numLanes="1" speed="8.33" allow="bicycle" oneway="0" width="1.00"/>
    <type id="highway.footway" priority="1" numLanes="1" speed="2.78" allow="pedestrian" oneway="1" width="2.00"/>
    <type id="highway.ford" priority="1" numLanes="1" speed="2.78" allow="army" oneway="0"/>
    <type id="highway.living_street" priority="2" numLanes="1" speed="2.78" disallow="tram rail_urban rail rail_electric rail_fast ship" oneway="0"/>
    <type id="highway.motorway" priority="14" numLanes="2" speed="39.44" allow="private emergency authority army vip passenger hov taxi bus coach delivery truck trailer motorcycle evehicle custom1 custom2" oneway="1"/>
    <type id="highway.motorway_link" priority="9" numLanes="1" speed="22.22" allow="private emergency authority army vip passenger hov taxi bus coach delivery truck trailer motorcycle evehicle custom1 custom2" oneway="1"/>
    <type id="highway.path" priority="1" numLanes="1" speed="2.78" allow="pedestrian bicycle" oneway="1" width="2.00"/>
    <type id="highway.pedestrian" priority="1" numLanes="1" speed="2.78" allow="pedestrian" oneway="1" width="2.00"/>
    <type id="highway.primary" priority="12" numLanes="2" speed="27.78" disallow="tram rail_urban rail rail_electric rail_fast ship" oneway="0"/>
    <type id="highway.primary_link" priority="7" numLanes="1" speed="22.22" disallow="tram rail_urban rail rail_electric rail_fast ship" oneway="0"/>
    <type id="highway.raceway" priority="15" numLanes="2" speed="83.33" allow="vip" oneway="0"/>
    <type id="highway.residential" priority="3" numLanes="1" speed="13.89" disallow="tram rail_urban rail rail_electric rail_fast ship" oneway="0"/>
    <type id="highway.secondary" priority="11" numLanes="2" speed="27.78" disallow="tram rail_urban rail rail_electric rail_fast ship" oneway="0"/>
    <type id="highway.secondary_link" priority="6" numLanes="1" speed="22.22" disallow="tram rail_urban rail rail_electric rail_fast ship" oneway="0"/>
    <type id="highway.service" priority="1" numLanes="1" speed="5.56" allow="pedestrian delivery bicycle" oneway="0"/>
    <type id="highway.stairs" priority="1" numLanes="1" speed="1.39" allow="pedestrian" oneway="1" width="2.00"/>
    <type id="highway.step" priority="1" numLanes="1" speed="1.39" allow="pedestrian" oneway="1" width="2.00"/>
    <type id="highway.steps" priority="1" numLanes="1" speed="1.39" allow="pedestrian" oneway="1" width="2.00"/>
    <type id="highway.tertiary" priority="10" numLanes="1" speed="22.22" disallow="tram rail_urban rail rail_electric rail_fast ship" oneway="0"/>
    <type id="highway.tertiary_link" priority="5" numLanes="1" speed="22.22" disallow="tram rail_urban rail rail_electric rail_fast ship" oneway="0"/>
    <type id="highway.track" priority="1" numLanes="1" speed="5.56" disallow="tram rail_urban rail rail_electric rail_fast ship" oneway="0"/>
    <type id="highway.trunk" priority="13" numLanes="2" speed="27.78" disallow="pedestrian bicycle tram rail_urban rail rail_electric rail_fast ship" oneway="0"/>
    <type id="highway.trunk_link" priority="8" numLanes="1" speed="22.22" disallow="pedestrian bicycle tram rail_urban rail rail_electric rail_fast ship" oneway="0"/>
    <type id="highway.unclassified" priority="4" numLanes="1" speed="13.89" disallow="tram rail_urban rail rail_electric rail_fast ship" oneway="0"/>
    <type id="highway.unsurfaced" priority="1" numLanes="1" speed="8.33" disallow="tram rail_urban rail rail_electric rail_fast ship" oneway="0"/>
    <type id="railway.highspeed" priority="21" numLanes="1" speed="69.44" allow="rail_fast" oneway="1"/>
    <type id="railway.light_rail" priority="19" numLanes="1" speed="27.78" allow="rail_urban" oneway="1"/>
    <type id="railway.preserved" priority="16" numLanes="1" speed="27.78" allow="rail" oneway="1"/>
    <type id="railway.rail" priority="20" numLanes="1" speed="44.44" allow="rail" oneway="1"/>
    <type id="railway.subway" priority="18" numLanes="1" speed="27.78" allow="rail_urban" oneway="1"/>
    <type id="railway.tram" priority="17" numLanes="1" speed="13.89" allow="tram" oneway="1"/>

    <edge id=":2663289375_0" function="internal">
        <lane id=":2663289375_0_0" index="0" disallow="tram rail_urban rail rail_electric rail_fast ship" speed="3.65" length="4.67" shape="654874.50,3202021.57 654874.91,3202020.19 654875.55,3202019.56 654876.43,3202019.70 654877.56,3202020.61"/>
    </edge>
    <edge id=":2663289711_0" function="internal">
        <lane id=":2663289711_0_0" index="0" disallow="tram rail_urban rail rail_electric rail_fast ship" speed="8.26" length="11.74" shape="657844.16,3204580.33 657841.86,3204578.01 657839.37,3204576.68 657836.69,3204576.34 657833.82,3204576.99"/>
    </edge>
    <edge id=":2663289711_1" function="internal">
        <lane id=":2663289711_1_0" index="0" disallow="pedestrian bicycle tram rail_urban rail rail_electric rail_fast ship" speed="27.78" length="16.66" shape="657844.16,3204580.33 657833.88,3204567.22"/>
        <lane id=":2663289711_1_1" index="1" disallow="pedestrian bicycle tram rail_urban rail rail_electric rail_fast ship" speed="27.78" length="16.66" shape="657846.68,3204578.36 657836.40,3204565.25"/>
    </edge>
    <edge id=":2663289711_3" function="internal">
        <lane id=":2663289711_3_0" index="0" disallow="tram rail_urban rail rail_electric rail_fast ship" speed="6.83" length="12.35" shape="657846.68,3204578.36 657844.53,3204574.92 657843.94,3204572.10 657844.93,3204569.90 657847.48,3204568.31"/>
    </edge>
    <edge id=":2663289711_4" function="internal">
        <lane id=":2663289711_4_0" index="0" disallow="tram rail_urban rail rail_electric rail_fast ship" speed="13.89" length="15.87" shape="657848.63,3204571.29 657833.82,3204576.99"/>
    </edge>
    <edge id=":2663289711_5" function="internal">
        <lane id=":2663289711_5_0" index="0" disallow="pedestrian bicycle tram rail_urban rail rail_electric rail_fast ship" speed="9.15" length="14.59" shape="657848.63,3204571.29 657845.71,3204571.75 657842.69,3204570.89 657839.59,3204568.72 657836.40,3204565.25"/>
    </edge>
    <edge id=":2663289711_6" function="internal">
        <lane id=":2663289711_6_0" index="0" disallow="tram rail_urban rail rail_electric rail_fast ship" speed="3.65" length="4.67" shape="657848.63,3204571.29 657847.22,3204570.98 657846.56,3204570.37 657846.65,3204569.48 657847.48,3204568.31"/>
    </edge>
    <edge id=":2663289711_7" function="internal">
        <lane id=":2663289711_7_0" index="0" disallow="pedestrian bicycle tram rail_urban rail rail_electric rail_fast ship" speed="5.79" length="8.52" shape="657832.67,3204574.00 657834.62,3204572.86 657835.48,3204571.34 657835.23,3204569.47 657833.88,3204567.22"/>
    </edge>
    <edge id=":2663289711_8" function="internal">
        <lane id=":2663289711_8_0" index="0" disallow="tram rail_urban rail rail_electric rail_fast ship" speed="13.89" length="15.87" shape="657832.67,3204574.00 657847.48,3204568.31"/>
    </edge>
    <edge id=":2663289711_9" function="internal">
        <lane id=":2663289711_9_0" index="0" disallow="tram rail_urban rail rail_electric rail_fast ship" speed="3.65" length="4.67" shape="657832.67,3204574.00 657834.07,3204574.32 657834.73,3204574.92 657834.65,3204575.81 657833.82,3204576.99"/>
    </edge>
    <edge id=":2663289713_0" function="internal">
        <lane id=":2663289713_0_0" index="0" disallow="pedestrian bicycle tram rail_urban rail rail_electric rail_fast ship" speed="5.84" length="8.50" shape="657833.63,3204577.06 657831.69,3204578.20 657830.82,3204579.72 657831.01,3204581.61 657832.27,3204583.88"/>
    </edge>
    <edge id=":2663289713_1" function="internal">
        <lane id=":2663289713_1_0" index="0" disallow="tram rail_urban rail rail_electric rail_fast ship" speed="13.89" length="15.56" shape="657833.63,3204577.06 657819.10,3204582.65"/>
    </edge>
    <edge id=":2663289713_2" function="internal">
        <lane id=":2663289713_2_0" index="0" disallow="tram rail_urban rail rail_electric rail_fast ship" speed="3.65" length="4.67" shape="657833.63,3204577.06 657832.22,3204576.74 657831.56,3204576.14 657831.65,3204575.25 657832.48,3204574.07"/>
    </edge>
    <edge id=":2663289713_3" function="internal">
        <lane id=":2663289713_3_0" index="0" disallow="tram rail_urban rail rail_electric rail_fast ship" speed="7.99" length="11.31" shape="657822.63,3204570.67 657824.78,3204572.99 657827.14,3204574.33 657829.71,3204574.69 657832.48,3204574.07"/>
    </edge>
    <edge id=":2663289713_4" function="internal">
        <lane id=":2663289713_4_0" index="0" disallow="pedestrian bicycle tram rail_urban rail rail_electric rail_fast ship" speed="27.78" length="16.36" shape="657822.63,3204570.67 657832.27,3204583.88"/>
        <lane id=":2663289713_4_1" index="1" disallow="pedestrian bicycle tram rail_urban rail rail_electric rail_fast ship" speed="27.78" length="16.36" shape="657820.05,3204572.56 657829.69,3204585.77"/>
    </edge>
    <edge id=":2663289713_6" function="internal">
        <lane id=":2663289713_6_0" index="0" disallow="tram rail_urban rail rail_electric rail_fast ship" speed="6.88" length="12.27" shape="657820.05,3204572.56 657822.07,3204576.04 657822.58,3204578.88 657821.59,3204581.08 657819.10,3204582.65"/>
    </edge>
    <edge id=":2663289713_7" function="internal">
        <lane id=":2663289713_7_0" index="0" disallow="tram rail_urban rail rail_electric rail_fast ship" speed="13.89" length="15.56" shape="657817.95,3204579.66 657832.48,3204574.07"/>
    </edge>
    <edge id=":2663289713_8" function="internal">
        <lane id=":2663289713_8_0" index="0" disallow="pedestrian bicycle tram rail_urban rail rail_electric rail_fast ship" speed="8.90" length="14.22" shape="657817.95,3204579.66 657820.82,3204579.22 657823.73,3204580.09 657826.69,3204582.28 657829.69,3204585.77"/>
    </edge>
    <edge id=":2663289713_9" function="internal">
        <lane id=":2663289713_9_0" index="0" disallow="tram rail_urban rail rail_electric rail_fast ship" speed="3.65" length="4.67" shape="657817.95,3204579.66 657819.36,3204579.98 657820.02,3204580.58 657819.94,3204581.47 657819.10,3204582.65"/>
    </edge>
    <edge id=":2663289717_0" function="internal">
        <lane id=":2663289717_0_0" index="0" disallow="tram rail_urban rail rail_electric rail_fast ship" speed="13.89" length="0.11" shape="657814.08,3204584.58 657813.98,3204584.63"/>
    </edge>
    <edge id=":2663289717_1" function="internal">
        <lane id=":2663289717_1_0" index="0" disallow="tram rail_urban rail rail_electric rail_fast ship" speed="13.89" length="0.33" shape="657812.62,3204581.73 657812.93,3204581.60"/>
    </edge>
    <edge id=":2663289719_0" function="internal">
        <lane id=":2663289719_0_0" index="0" disallow="tram rail_urban rail rail_electric rail_fast ship" speed="13.89" length="0.10" shape="657797.76,3204592.19 657797.76,3204592.19"/>
    </edge>
    <edge id=":2663289719_1" function="internal">
        <lane id=":2663289719_1_0" index="0" disallow="tram rail_urban rail rail_electric rail_fast ship" speed="13.89" length="0.10" shape="657796.41,3204589.29 657796.41,3204589.29"/>
    </edge>
    <edge id=":2663289752_0" function="internal">
        <lane id=":2663289752_0_0" index="0" disallow="tram rail_urban rail rail_electric rail_fast ship" speed="13.89" length="17.08" shape="655998.08,3204742.69 655997.16,3204738.83 655995.10,3204734.91 655992.49,3204731.19 655989.96,3204727.92"/>
    </edge>
    <edge id=":2663289752_1" function="internal">
        <lane id=":2663289752_1_0" index="0" disallow="tram rail_urban rail rail_electric rail_fast ship" speed="13.89" length="18.57" shape="655998.08,3204742.69 655997.77,3204724.12"/>
    </edge>
    <edge id=":2663289752_2" function="internal">
        <lane id=":2663289752_2_0" index="0" disallow="tram rail_urban rail rail_electric rail_fast ship" speed="3.65" length="2.34" shape="655998.08,3204742.69 655998.83,3204741.46 655999.62,3204741.03"/>
    </edge>
    <edge id=":2663289752_9" function="internal">
        <lane id=":2663289752_9_0" index="0" disallow="tram rail_urban rail rail_electric rail_fast ship" speed="3.65" length="2.34" shape="655999.62,3204741.03 656000.43,3204741.40 656001.28,3204742.57"/>
    </edge>
    <edge id=":2663289752_3" function="internal">
        <lane id=":2663289752_3_0" index="0" disallow="tram rail_urban rail rail_electric rail_fast ship" speed="13.89" length="18.47" shape="656000.97,3204724.10 656001.28,3204742.57"/>
    </edge>
    <edge id=":2663289752_4" function="internal">
        <lane id=":2663289752_4_0" index="0" disallow="tram rail_urban rail rail_electric rail_fast ship" speed="7.57" length="8.59" shape="656000.97,3204724.10 656000.34,3204731.17 655999.51,3204732.40"/>
    </edge>
    <edge id=":2663289752_5" function="internal">
        <lane id=":2663289752_5_0" index="0" disallow="tram rail_urban rail rail_electric rail_fast ship" speed="3.65" length="2.34" shape="656000.97,3204724.10 656000.18,3204725.30 655999.38,3204725.71"/>
    </edge>
    <edge id=":2663289752_10" function="internal">
        <lane id=":2663289752_10_0" index="0" disallow="tram rail_urban rail rail_electric rail_fast ship" speed="7.57" length="12.88" shape="655999.51,3204732.40 655998.30,3204734.17 655994.84,3204733.08 655989.96,3204727.92"/>
    </edge>
    <edge id=":2663289752_11" function="internal">
        <lane id=":2663289752_11_0" index="0" disallow="tram rail_urban rail rail_electric rail_fast ship" speed="3.65" length="2.34" shape="655999.38,3204725.71 655998.58,3204725.32 655997.77,3204724.12"/>
    </edge>
    <edge id=":2663289752_6" function="internal">
        <lane id=":2663289752_6_0" index="0" disallow="tram rail_urban rail rail_electric rail_fast ship" speed="5.46" length="10.29" shape="655992.49,3204725.96 655994.83,3204728.43 655996.49,3204728.96 655997.47,3204727.52 655997.77,3204724.12"/>
    </edge>
    <edge id=":2663289752_7" function="internal">
        <lane id=":2663289752_7_0" index="0" disallow="tram rail_urban rail rail_electric rail_fast ship" speed="13.89" length="18.99" shape="655992.49,3204725.96 655995.13,3204729.52 655997.96,3204733.87 656000.25,3204738.42 656001.28,3204742.57"/>
    </edge>
    <edge id=":2663289752_8" function="internal">
        <lane id=":2663289752_8_0" index="0" disallow="tram rail_urban rail rail_electric rail_fast ship" speed="3.65" length="4.67" shape="655992.49,3204725.96 655992.59,3204727.39 655992.20,3204728.20 655991.33,3204728.37 655989.96,3204727.92"/>
    </edge>
    <edge id=":2663289790_0" function="internal">
        <lane id=":2663289790_0_0" index="0" disallow="tram rail_urban rail rail_electric rail_fast ship" speed="8.32" length="11.71" shape="656006.01,3204941.84 656004.58,3204938.79 656002.70,3204936.63 656000.36,3204935.36 655997.57,3204934.97"/>
    </edge>
    <edge id=":2663289790_1" function="internal">
        <lane id=":2663289790_1_0" index="0" disallow="tram rail_urban rail rail_electric rail_fast ship" speed="13.89" length="16.10" shape="656006.01,3204941.84 656004.87,3204938.08 656003.94,3204934.06 656003.29,3204929.98 656003.03,3204926.07"/>
    </edge>
    <edge id=":2663289790_2" function="internal">
        <lane id=":2663289790_2_0" index="0" disallow="tram rail_urban rail rail_electric rail_fast ship" speed="7.53" length="15.70" shape="656006.01,3204941.84 656005.14,3204937.37 656006.07,3204934.20 656008.78,3204932.32 656013.29,3204931.73"/>
    </edge>
    <edge id=":2663289790_3" function="internal">
        <lane id=":2663289790_3_0" index="0" disallow="tram rail_urban rail rail_electric rail_fast ship" speed="3.65" length="4.67" shape="656006.01,3204941.84 656006.38,3204940.44 656007.00,3204939.80 656007.89,3204939.92 656009.04,3204940.79"/>
    </edge>
    <edge id=":2663289790_4" function="internal">
        <lane id=":2663289790_4_0" index="0" disallow="tram rail_urban rail rail_electric rail_fast ship" speed="5.89" length="9.11" shape="656013.26,3204934.93 656010.64,3204935.27 656009.07,3204936.36 656008.53,3204938.20 656009.04,3204940.79"/>
    </edge>
    <edge id=":2663289790_5" function="internal">
        <lane id=":2663289790_5_0" index="0" disallow="tram rail_urban rail rail_electric rail_fast ship" speed="13.89" length="15.69" shape="656013.26,3204934.93 655997.57,3204934.97"/>
    </edge>
    <edge id=":2663289790_6" function="internal">
        <lane id=":2663289790_6_0" index="0" disallow="tram rail_urban rail rail_electric rail_fast ship" speed="8.37" length="6.60" shape="656013.26,3204934.93 656008.83,3204934.34 656006.95,3204933.35"/>
    </edge>
    <edge id=":2663289790_7" function="internal">
        <lane id=":2663289790_7_0" index="0" disallow="tram rail_urban rail rail_electric rail_fast ship" speed="3.65" length="2.34" shape="656013.26,3204934.93 656012.07,3204934.12 656011.68,3204933.32"/>
    </edge>
    <edge id=":2663289790_16" function="internal">
        <lane id=":2663289790_16_0" index="0" disallow="tram rail_urban rail rail_electric rail_fast ship" speed="8.37" length="8.73" shape="656006.95,3204933.35 656005.65,3204932.66 656003.72,3204929.91 656003.03,3204926.07"/>
    </edge>
    <edge id=":2663289790_17" function="internal">
        <lane id=":2663289790_17_0" index="0" disallow="tram rail_urban rail rail_electric rail_fast ship" speed="3.65" length="2.34" shape="656011.68,3204933.32 656012.09,3204932.52 656013.29,3204931.73"/>
    </edge>
    <edge id=":2663289790_8" function="internal">
        <lane id=":2663289790_8_0" index="0" disallow="tram rail_urban rail rail_electric rail_fast ship" speed="6.96" length="10.27" shape="656006.23,3204926.03 656006.70,3204928.49 656008.04,3204930.27 656010.23,3204931.35 656013.29,3204931.73"/>
    </edge>
    <edge id=":2663289790_9" function="internal">
        <lane id=":2663289790_9_0" index="0" disallow="tram rail_urban rail rail_electric rail_fast ship" speed="13.89" length="15.09" shape="656006.23,3204926.03 656006.47,3204929.78 656007.05,3204933.51 656007.92,3204937.19 656009.04,3204940.79"/>
    </edge>
    <edge id=":2663289790_10" function="internal">
        <lane id=":2663289790_10_0" index="0" disallow="tram rail_urban rail rail_electric rail_fast ship" speed="8.01" length="14.18" shape="656006.23,3204926.03 656005.73,3204929.88 656004.13,3204932.66 656001.41,3204934.35 655997.57,3204934.97"/>
    </edge>
    <edge id=":2663289790_11" function="internal">
        <lane id=":2663289790_11_0" index="0" disallow="tram rail_urban rail rail_electric rail_fast ship" speed="3.65" length="4.67" shape="656006.23,3204926.03 656005.44,3204927.24 656004.65,3204927.65 656003.84,3204927.26 656003.03,3204926.07"/>
    </edge>
    <edge id=":2663289790_12" function="internal">
        <lane id=":2663289790_12_0" index="0" disallow="tram rail_urban rail rail_electric rail_fast ship" speed="6.51" length="9.03" shape="655997.52,3204931.77 655999.96,3204931.38 656001.69,3204930.30 656002.71,3204928.53 656003.03,3204926.07"/>
    </edge>
    <edge id=":2663289790_13" function="internal">
        <lane id=":2663289790_13_0" index="0" disallow="tram rail_urban rail rail_electric rail_fast ship" speed="13.89" length="15.78" shape="655997.52,3204931.77 656013.29,3204931.73"/>
    </edge>
    <edge id=":2663289790_14" function="internal">
        <lane id=":2663289790_14_0" index="0" disallow="tram rail_urban rail rail_electric rail_fast ship" speed="9.57" length="6.21" shape="655997.52,3204931.77 656001.37,3204932.28 656003.43,3204933.35"/>
    </edge>
    <edge id=":2663289790_15" function="internal">
        <lane id=":2663289790_15_0" index="0" disallow="tram rail_urban rail rail_electric rail_fast ship" speed="3.65" length="2.34" shape="655997.52,3204931.77 655998.73,3204932.55 655999.14,3204933.34"/>
    </edge>
    <edge id=":2663289790_18" function="internal">
        <lane id=":2663289790_18_0" index="0" disallow="tram rail_urban rail rail_electric rail_fast ship" speed="9.57" length="9.54" shape="656003.43,3204933.35 656004.57,3204933.95 656007.13,3204936.79 656009.04,3204940.79"/>
    </edge>
    <edge id=":2663289790_19" function="internal">
        <lane id=":2663289790_19_0" index="0" disallow="tram rail_urban rail rail_electric rail_fast ship" speed="3.65" length="2.34" shape="655999.14,3204933.34 655998.76,3204934.15 655997.57,3204934.97"/>
    </edge>
    <edge id=":2663289825_0" function="internal">
        <lane id=":2663289825_0_0" index="0" disallow="tram rail_urban rail rail_electric rail_fast ship" speed="13.89" length="1.32" shape="656794.81,3205056.78 656794.44,3205056.92 656794.19,3205057.00 656793.92,3205057.04 656793.53,3205057.08"/>
    </edge>
    <edge id=":2663289825_1" function="internal">
        <lane id=":2663289825_1_0" index="0" disallow="tram rail_urban rail rail_electric rail_fast ship" speed="13.89" length="0.44" shape="656793.22,3205053.90 656793.35,3205053.89 656793.43,3205053.87 656793.52,3205053.84 656793.64,3205053.80"/>
    </edge>
    <edge id=":2663289834_0" function="internal">
        <lane id=":2663289834_0_0" index="0" disallow="tram rail_urban rail rail_electric rail_fast ship" speed="13.89" length="0.10" shape="656786.47,3205057.78 656786.48,3205057.78"/>
    </edge>
    <edge id=":2663289834_1" function="internal">
        <lane id=":2663289834_1_0" index="0" disallow="tram rail_urban rail rail_electric rail_fast ship" speed="13.89" length="0.10" shape="656786.16,3205054.60 656786.16,3205054.60"/>
    </edge>
    <edge id=":2663289843_0" function="internal">
        <lane id=":2663289843_0_0" index="0" disallow="tram rail_urban rail rail_electric rail_fast ship" speed="6.11" length="6.82" shape="655606.19,3205062.29 655606.10,3205060.46 655606.59,3205058.96 655607.64,3205057.78 655609.25,3205056.92"/>
    </edge>
    <edge id=":2663289843_1" function="internal">
        <lane id=":2663289843_1_0" index="0" disallow="tram rail_urban rail rail_electric rail_fast ship" speed="3.92" length="2.27" shape="655610.35,3205059.92 655609.82,3205060.21 655609.47,3205060.60 655609.31,3205061.10 655609.33,3205061.71"/>
    </edge>
    <edge id=":2663289858_0" function="internal">
        <lane id=":2663289858_0_0" index="0" disallow="tram rail_urban rail rail_electric rail_fast ship" speed="7.62" length="9.70" shape="656297.04,3205126.34 656294.44,3205127.19 656292.50,3205128.52 656291.22,3205130.33 656290.60,3205132.64"/>
    </edge>
    <edge id=":2663289858_1" function="internal">
        <lane id=":2663289858_1_0" index="0" disallow="tram rail_urban rail rail_electric rail_fast ship" speed="8.00" length="14.11" shape="656297.04,3205126.34 656293.19,3205126.58 656290.17,3205125.52 656288.00,3205123.18 656286.67,3205119.55"/>
    </edge>
    <edge id=":2663289858_2" function="internal">
        <lane id=":2663289858_2_0" index="0" disallow="tram rail_urban rail rail_electric rail_fast ship" speed="3.65" length="4.67" shape="656297.04,3205126.34 656295.71,3205125.80 656295.15,3205125.10 656295.38,3205124.23 656296.40,3205123.21"/>
    </edge>
    <edge id=":2663289858_3" function="internal">
        <lane id=":2663289858_3_0" index="0" disallow="tram rail_urban rail rail_electric rail_fast ship" speed="6.51" length="8.98" shape="656289.80,3205118.89 656290.65,3205121.20 656292.03,3205122.69 656293.95,3205123.36 656296.40,3205123.21"/>
    </edge>
    <edge id=":2663289858_4" function="internal">
        <lane id=":2663289858_4_0" index="0" disallow="tram rail_urban rail rail_electric rail_fast ship" speed="13.89" length="13.84" shape="656289.80,3205118.89 656290.44,3205122.40 656290.80,3205125.73 656290.86,3205129.08 656290.60,3205132.64"/>
    </edge>
    <edge id=":2663289858_5" function="internal">
        <lane id=":2663289858_5_0" index="0" disallow="tram rail_urban rail rail_electric rail_fast ship" speed="3.65" length="2.34" shape="656289.80,3205118.89 656289.27,3205120.23 656288.57,3205120.79"/>
    </edge>
    <edge id=":2663289858_9" function="internal">
        <lane id=":2663289858_9_0" index="0" disallow="tram rail_urban rail rail_electric rail_fast ship" speed="3.65" length="2.34" shape="656288.57,3205120.79 656287.70,3205120.56 656286.67,3205119.55"/>
    </edge>
    <edge id=":2663289858_6" function="internal">
        <lane id=":2663289858_6_0" index="0" disallow="tram rail_urban rail rail_electric rail_fast ship" speed="13.89" length="12.81" shape="656287.42,3205132.28 656287.69,3205128.88 656287.65,3205125.89 656287.31,3205122.91 656286.67,3205119.55"/>
    </edge>
    <edge id=":2663289858_7" function="internal">
        <lane id=":2663289858_7_0" index="0" disallow="tram rail_urban rail rail_electric rail_fast ship" speed="8.97" length="5.12" shape="656287.42,3205132.28 656288.30,3205128.93 656289.23,3205127.56"/>
    </edge>
    <edge id=":2663289858_8" function="internal">
        <lane id=":2663289858_8_0" index="0" disallow="tram rail_urban rail rail_electric rail_fast ship" speed="3.65" length="2.34" shape="656287.42,3205132.28 656288.35,3205131.18 656289.19,3205130.87"/>
    </edge>
    <edge id=":2663289858_10" function="internal">
        <lane id=":2663289858_10_0" index="0" disallow="tram rail_urban rail rail_electric rail_fast ship" speed="8.97" length="8.63" shape="656289.23,3205127.56 656290.09,3205126.31 656292.79,3205124.40 656296.40,3205123.21"/>
    </edge>
    <edge id=":2663289858_11" function="internal">
        <lane id=":2663289858_11_0" index="0" disallow="tram rail_urban rail rail_electric rail_fast ship" speed="3.65" length="2.34" shape="656289.19,3205130.87 656289.94,3205131.36 656290.60,3205132.64"/>
    </edge>
    <edge id=":2663289859_0" function="internal">
        <lane id=":2663289859_0_0" index="0" disallow="tram rail_urban rail rail_electric rail_fast ship" speed="5.95" length="9.09" shape="655618.24,3205127.96 655617.41,3205125.48 655616.03,3205124.12 655614.12,3205123.88 655611.65,3205124.75"/>
    </edge>
    <edge id=":2663289859_1" function="internal">
        <lane id=":2663289859_1_0" index="0" disallow="tram rail_urban rail rail_electric rail_fast ship" speed="13.89" length="14.84" shape="655618.24,3205127.96 655615.56,3205113.36"/>
    </edge>
    <edge id=":2663289859_2" function="internal">
        <lane id=":2663289859_2_0" index="0" disallow="tram rail_urban rail rail_electric rail_fast ship" speed="7.67" length="6.22" shape="655618.24,3205127.96 655618.05,3205123.53 655618.75,3205121.89"/>
    </edge>
    <edge id=":2663289859_3" function="internal">
        <lane id=":2663289859_3_0" index="0" disallow="tram rail_urban rail rail_electric rail_fast ship" speed="3.65" length="2.34" shape="655618.24,3205127.96 655618.81,3205126.64 655619.52,3205126.10"/>
    </edge>
    <edge id=":2663289859_16" function="internal">
        <lane id=":2663289859_16_0" index="0" disallow="tram rail_urban rail rail_electric rail_fast ship" speed="7.67" length="9.19" shape="655618.75,3205121.89 655619.36,3205120.45 655622.18,3205118.74 655626.49,3205118.39"/>
    </edge>
    <edge id=":2663289859_17" function="internal">
        <lane id=":2663289859_17_0" index="0" disallow="tram rail_urban rail rail_electric rail_fast ship" speed="3.65" length="2.34" shape="655619.52,3205126.10 655620.38,3205126.35 655621.38,3205127.38"/>
    </edge>
    <edge id=":2663289859_4" function="internal">
        <lane id=":2663289859_4_0" index="0" disallow="tram rail_urban rail rail_electric rail_fast ship" speed="6.10" length="9.26" shape="655626.29,3205121.58 655623.72,3205121.80 655622.04,3205122.84 655621.26,3205124.70 655621.38,3205127.38"/>
    </edge>
    <edge id=":2663289859_5" function="internal">
        <lane id=":2663289859_5_0" index="0" disallow="tram rail_urban rail rail_electric rail_fast ship" speed="13.89" length="15.14" shape="655626.29,3205121.58 655622.52,3205121.61 655618.76,3205122.18 655615.11,3205123.23 655611.65,3205124.75"/>
    </edge>
    <edge id=":2663289859_6" function="internal">
        <lane id=":2663289859_6_0" index="0" disallow="tram rail_urban rail rail_electric rail_fast ship" speed="8.97" length="14.69" shape="655626.29,3205121.58 655622.12,3205120.84 655618.94,3205119.22 655616.75,3205116.73 655615.56,3205113.36"/>
    </edge>
    <edge id=":2663289859_7" function="internal">
        <lane id=":2663289859_7_0" index="0" disallow="tram rail_urban rail rail_electric rail_fast ship" speed="3.65" length="4.67" shape="655626.29,3205121.58 655625.14,3205120.70 655624.79,3205119.88 655625.24,3205119.11 655626.49,3205118.39"/>
    </edge>
    <edge id=":2663289859_8" function="internal">