<?xml version="1.0" encoding="UTF-8"?>

<!-- generated on 05/22/20 16:37:18 by Eclipse SUMO duarouter Version 1.3.1
<configuration xmlns:xsi="http://www.w3.org/2001/XMLSchema-instance" xsi:noNamespaceSchemaLocation="http://sumo.dlr.de/xsd/duarouterConfiguration.xsd">

    <input>
        <net-file value="network.net.xml"/>
        <route-files value="trips.trips.xml"/>
    </input>

    <output>
        <output-file value="vehicle.rou.xml"/>
        <alternatives-output value="vehicle.rou.alt.xml"/>
    </output>

    <time>
        <begin value="0"/>
        <end value="100.0"/>
    </time>

    <report>
        <no-warnings value="true"/>
        <ignore-errors value="true"/>
        <no-step-log value="true"/>
    </report>

</configuration>
-->

<routes xmlns:xsi="http://www.w3.org/2001/XMLSchema-instance" xsi:noNamespaceSchemaLocation="http://sumo.dlr.de/xsd/routes_file.xsd">
    <vehicle id="0" depart="0.00">
        <route edges="-268434207#6 -268434207#5 -566509162#3 566509880#1 -268434207#2 260769522#5 268434051 268433732#0 268433732#1 260769492#0 260769492#1 260769358 260769536 260769360 260769527 -260769486#1 260769541#0 260769541#1 260769541#2"/>
    </vehicle>
    <vehicle id="1" depart="1.00">
        <route edges="260769486#4 260769486#5 260769486#0 260769486#1 -260769527 -260769360 -260769536 -260769358 -260769492#1 -260769492#0 -268433732#1 -268433732#0 -268434051 -260769522#5 -260769522#4 -566509162#1 -566509162#0 566509162#0"/>
    </vehicle>
    <vehicle id="2" depart="2.00">
        <route edges="-260769358 -260769492#1 -260769492#0 -268433732#1 -268433732#0 -268434051 -260769522#5 268434207#2 -566509880#1 566509162#3 268434207#5 268434207#6 -268434207#6"/>
    </vehicle>
    <vehicle id="3" depart="3.00">
        <route edges="-260769486#1 260769486#1 -260769527 -260769360 -260769536 -260769358 -260769492#1 -260769492#0 -268433732#1 -268433732#0 -268434051 -260769522#5 268434207#2 -566509880#1 566509162#3 -268434207#4"/>
    </vehicle>
    <vehicle id="4" depart="4.00">
        <route edges="-566509162#3 -566509880#0 -566509745#0 -566509718#0 -260769522#0 566508356#3 566508356#4 -566508356#4"/>
    </vehicle>
    <vehicle id="5" depart="5.00">
        <route edges="-566509162#2 -566509162#1 -566509162#0 566508356#1 -566508377 566508377"/>
    </vehicle>
    <vehicle id="6" depart="6.00">
        <route edges="260769486#3 -260769486#3 -260769486#2 -260769527 -260769360 -260769536 -260769358 -260769492#1 -260769492#0 -268433732#1 -268433732#0 -268434051 -260769522#5 -268434207#1 -268434207#0"/>
    </vehicle>
    <vehicle id="7" depart="7.00">
        <route edges="566508356#2 260769522#0 566509718#0 566509745#0 566509745#1"/>
    </vehicle>
    <vehicle id="8" depart="8.00">
        <route edges="-566508377 566508377 -566508356#1 566509162#0 566509162#1 260769522#4 260769522#5 268434051 268433732#0 268433732#1 260769492#0 260769492#1 260769358 260769536 260769360 260769527 -260769486#1 -260769486#0 -260769486#5 260769486#5 260769486#0"/>
    </vehicle>
    <vehicle id="9" depart="9.00">
        <route edges="268434245#1 268434245#2 -260769522#1 -260769522#0 566508356#3"/>
    </vehicle>
    <vehicle id="10" depart="10.00">
        <route edges="-268433976 -268433805#1 -268433805#0 268433805#0 268433805#1 268433976 268434245#0 268434207#1 268434207#2 -268434207#2"/>
    </vehicle>
    <vehicle id="11" depart="11.00">
        <route edges="-566509880#1 566509880#1 -268434207#2 260769522#5 268434051 268433732#0 268433732#1 260769492#0 260769492#1 260769358 260769536 260769360 260769527 -260769527 -260769360 -260769536 -260769358"/>
    </vehicle>
    <vehicle id="12" depart="12.00">
        <route edges="260769486#2 -260769486#2 -260769527 -260769360 -260769536 -260769358 -260769492#1 -260769492#0 -268433732#1 -268433732#0 -268434051 -260769522#5 -260769522#4 -260769522#3 -260769522#2 -268434245#2"/>
    </vehicle>
    <vehicle id="13" depart="13.00">
        <route edges="268433805#0 268433805#1 268433976 268434245#0 268434245#1 268434245#2 -260769522#1 566509718#0"/>
    </vehicle>
    <vehicle id="14" depart="14.00">
        <route edges="566508368 -566508368 -566508356#3 260769522#0 260769522#1 260769522#2 260769522#3 260769522#4 260769522#5 268434051 268433732#0 268433732#1 260769492#0 260769492#1 260769358 260769536 260769360 260769527 -260769486#1 -260769486#0 -260769486#5 260769486#5 260769486#0"/>
    </vehicle>
    <vehicle id="15" depart="15.00">
        <route edges="-260769486#1 260769541#0 566613412#0 -566613412#0"/>
    </vehicle>
    <vehicle id="16" depart="16.00">
        <route edges="-268434207#5 -566509162#3 566509880#1 -268434207#2 260769522#5 268434051 268433732#0 268433732#1 260769492#0 260769492#1 260769358 260769536 260769360 260769527 -260769486#1 260769541#0 260769541#1 260769541#2"/>
    </vehicle>
    <vehicle id="17" depart="17.00">
        <route edges="-260769486#1 260769486#1 -260769527 -260769360 -260769536 -260769358 -260769492#1 -260769492#0 -268433732#1 -268433732#0 -268434051 -260769522#5 -260769522#4 -260769522#3 -566509745#1 566509745#1"/>
    </vehicle>
    <vehicle id="18" depart="18.00">
        <route edges="566613412#0 566613435#0 -260769486#2 -260769527 -260769360 -260769536 -260769358 -260769492#1 -260769492#0 -268433732#1 -268433732#0 -268434051 -260769522#5 -260769522#4 -260769522#3"/>
    </vehicle>
    <vehicle id="19" depart="19.00">
        <route edges="-260769522#0 260769522#0 566509718#0 566509745#0 566509880#0 566509162#3 -268434207#4 268434207#4"/>
    </vehicle>
    <vehicle id="20" depart="20.00">
        <route edges="268434207#10 268434207#0 268434207#1 260769522#5 268434051 268433732#0 268433732#1 260769492#0 260769492#1 260769358 260769536 260769360 260769527 -260769486#1 -260769486#0 -260769486#5 -260769541#2"/>
    </vehicle>
    <vehicle id="21" depart="21.00">
        <route edges="566509880#1 -268434207#2 260769522#5 268434051 268433732#0 268433732#1 260769492#0 260769492#1 260769358 260769536 260769360 260769527 -260769486#1 -260769486#0 -260769486#5 -260769541#2"/>
    </vehicle>
    <vehicle id="22" depart="22.00">
        <route edges="268434245#2 -268434245#2 -268434245#1 -268434245#0 -268433976 -268433805#1 -268433805#0"/>
    </vehicle>
    <vehicle id="23" depart="23.00">
        <route edges="268434051 268433732#0 268433732#1 -268433732#1 -268433732#0 -268434051 -260769522#5 -260769522#4"/>
    </vehicle>
    <vehicle id="24" depart="24.00">
        <route edges="-260769527 -260769360 -260769536 -260769358 -260769492#1 -260769492#0 -268433732#1 -268433732#0 -268434051 -260769522#5 268434207#2 268434207#3 268434239 268433973 268433858#0 268433858#1 -268433858#1 -268433858#0 -268433973"/>
    </vehicle>
    <vehicle id="25" depart="25.00">
        <route edges="-268434207#3 -268434207#2 -260769522#4 -260769522#3 -260769522#2 -260769522#1 -260769522#0 566508356#3 566508368 268434207#9"/>
    </vehicle>
    <vehicle id="26" depart="26.00">
        <route edges="-566613435#1 -260769486#2 -260769527 -260769360 -260769536 -260769358 -260769492#1 260769492#1 260769358 260769536 260769360"/>
    </vehicle>
    <vehicle id="27" depart="27.00">
        <route edges="566508368 -566508368 -566508356#3 260769522#0 260769522#1 260769522#2 260769522#3 260769522#4 260769522#5 268434051 268433732#0 268433732#1 260769492#0 260769492#1 260769358 260769536 260769360 260769527 -260769527"/>
    </vehicle>
    <vehicle id="28" depart="28.00">
        <route edges="566509745#0 566509880#0 566509162#3 -268434207#4 268434239 268433973 268433858#0 268433858#1 -268433858#1 -268433858#0 -268433973 -268434239"/>
    </vehicle>
    <vehicle id="29" depart="29.00">
        <route edges="-260769486#5 260769486#5 260769486#0 260769486#1 -260769527 -260769360 -260769536 -260769358 -260769492#1 -260769492#0 -268433732#1 -268433732#0 -268434051 -260769522#5 268434207#2 -566509880#1 566509162#3 268434207#5 -268434207#5"/>
    </vehicle>
    <vehicle id="31" depart="31.00">
        <route edges="-566509880#1 566509880#1 -268434207#2 260769522#5 268434051 268433732#0 268433732#1 -268433732#1 -268433732#0"/>
    </vehicle>
    <vehicle id="32" depart="32.00">
        <route edges="566509162#2 -566509162#2 -566509162#1 -268434245#1 -268434207#0"/>
    </vehicle>
    <vehicle id="33" depart="33.00">
        <route edges="-268434239 -268434207#3 -268434207#2 260769522#5 268434051 268433732#0 268433732#1 260769492#0 260769492#1 260769358 260769536 260769360 260769527 -260769486#1"/>
    </vehicle>
    <vehicle id="34" depart="34.00">
        <route edges="268433976 268434245#0 -268434245#0 -268433976 -268433805#1 -268433805#0"/>
    </vehicle>
    <vehicle id="35" depart="35.00">
        <route edges="312478258#0 312478258#1 -260769492#0 -268433732#1 -268433732#0 -268434051 -260769522#5 -268434207#1 -268434245#0 -268433976 -268433805#1 -268433805#0 268433805#0 268433805#1 268433976"/>
    </vehicle>
    <vehicle id="36" depart="36.00">
        <route edges="-260769486#3 -260769486#2 -260769527 -260769360 -260769536 -260769358 -260769492#1 -260769492#0 -268433732#1 -268433732#0 -268434051 -260769522#5 268434207#2 -566509880#1 566509880#1"/>
    </vehicle>
    <vehicle id="37" depart="37.00">
        <route edges="-260769488 -170131020 260769486#1 -260769527 -260769360 -260769536 -260769358 -260769492#1 -260769492#0 -268433732#1 -268433732#0 -268434051 -260769522#5 268434207#2 -566509880#1 566509880#1"/>
    </vehicle>
    <vehicle id="38" depart="38.00">
        <route edges="-566613412#1 566613435#0 -260769486#2"/>
    </vehicle>
    <vehicle id="39" depart="39.00">
        <route edges="-566509162#0 566509162#0 566509162#1 566509162#2 -566509880#0"/>
    </vehicle>
    <vehicle id="40" depart="40.00">
        <route edges="566509718#0 -566509718#0 -260769522#0 566508356#3 566508368"/>
    </vehicle>
    <vehicle id="41" depart="41.00">
        <route edges="566509880#0 -566509880#0 -566509745#0 -566509718#0 -260769522#0 566508356#3 -566508356#3"/>
    </vehicle>
    <vehicle id="42" depart="42.00">
        <route edges="-260769486#0"/>
    </vehicle>
    <vehicle id="43" depart="43.00">
        <route edges="-268433973 -268434239 -268434207#3 -268434207#2 260769522#5 268434051 268433732#0 268433732#1 260769492#0 260769492#1 260769358 260769536 260769360 260769527 260769486#2 566613435#1"/>
    </vehicle>
    <vehicle id="44" depart="44.00">
        <route edges="-268434051 -260769522#5 -260769522#4 -260769522#3 -260769522#2 -260769522#1 -260769522#0 260769522#0"/>
    </vehicle>
    <vehicle id="45" depart="45.00">
        <route edges="260769486#5 260769486#0 260769486#1 -260769527 -260769360 -260769536 -260769358 -260769492#1 -260769492#0 -268433732#1 -268433732#0 -268434051 -260769522#5 268434207#2 268434207#3"/>
    </vehicle>
    <vehicle id="46" depart="46.00">
        <route edges="260769536 260769360 260769527 -260769527 -260769360 -260769536 -260769358 -260769492#1 -260769492#0 -268433732#1 -268433732#0 -268434051 -260769522#5 -260769522#4 -260769522#3 -260769522#2 -268434245#2"/>
    </vehicle>
    <vehicle id="47" depart="47.00">
        <route edges="566509880#1 -566509880#1 -566509880#0 566509745#1"/>
    </vehicle>
    <vehicle id="48" depart="48.00">
        <route edges="-268434245#2 566509162#1 566509162#2 566509162#3 268434207#5"/>
    </vehicle>
    <vehicle id="49" depart="49.00">
        <route edges="-566509162#1 566509162#1 260769522#4 260769522#5 268434051 268433732#0"/>
    </vehicle>
    <vehicle id="50" depart="50.00">
        <route edges="-260769360 -260769536 -260769358 -260769492#1 260769492#1 260769358 260769536 260769360 260769527 -260769486#1 260769541#0"/>
    </vehicle>
    <vehicle id="51" depart="51.00">
        <route edges="-268434239 268434207#4 -566509162#3 -566509880#0 -566509745#0 -566509718#0 -260769522#0"/>
    </vehicle>
    <vehicle id="52" depart="52.00">
        <route edges="268434207#7 -566508356#4 -566508356#3 260769522#0 260769522#1 260769522#2 260769522#3 260769522#4 260769522#5 268434051 268433732#0 268433732#1 260769492#0 312478258#2"/>
    </vehicle>
    <vehicle id="53" depart="53.00">
        <route edges="-260769486#5 260769486#5 260769486#0 260769486#1 -260769527 -260769360 -260769536 -260769358 -260769492#1 -260769492#0 -268433732#1 -268433732#0 -268434051 -260769522#5 -260769522#4 -260769522#3 -566509745#1 -566509745#0"/>
    </vehicle>
    <vehicle id="54" depart="54.00">
        <route edges="-260769522#3 -260769522#2 -260769522#1 -260769522#0 566508356#3 566508368 268434207#9"/>
    </vehicle>
    <vehicle id="55" depart="55.00">
        <route edges="268433858#0 268433858#1 -268433858#1 -268433858#0 -268433973 -268434239 268434207#4 -566509162#3 -566509162#2 -566509162#1 566509162#1"/>
    </vehicle>
    <vehicle id="56" depart="56.00">
        <route edges="260769522#2 -260769522#2 -260769522#1 -260769522#0 566508356#3 566508368 -566508368"/>
    </vehicle>
    <vehicle id="57" depart="57.00">
        <route edges="260769522#3 260769522#4 260769522#5 268434051 268433732#0 268433732#1 -268433732#1"/>
    </vehicle>
    <vehicle id="58" depart="58.00">
        <route edges="566508356#1 566508356#2 260769522#0 -260769522#0"/>
    </vehicle>
    <vehicle id="59" depart="59.00">
        <route edges="-566509162#3 -566509880#0 -566509745#0 -566509718#0 -260769522#0 566508356#3 566508368 268434207#9"/>
    </vehicle>
    <vehicle id="60" depart="60.00">
        <route edges="260769592#2 260769592#3 -268433732#1 -268433732#0 -268434051 -260769522#5 -260769522#4 -566509162#1 -566509162#0 -566508356#0"/>
    </vehicle>
    <vehicle id="61" depart="61.00">
        <route edges="260769360 260769527 -260769527 -260769360 -260769536 -260769358 -260769492#1 -260769492#0 -268433732#1 -268433732#0 -268434051 -260769522#5 268434207#2 268434207#3 268434239"/>
    </vehicle>
    <vehicle id="62" depart="62.00">
        <route edges="268434207#4 268434207#5"/>
    </vehicle>
    <vehicle id="63" depart="63.00">
        <route edges="-260769522#4 260769522#4 260769522#5 268434051 268433732#0 268433732#1 260769492#0"/>
    </vehicle>
    <vehicle id="64" depart="64.00">
        <route edges="-566509718#0 260769522#1 260769522#2 260769522#3 260769522#4 260769522#5 268434051 268433732#0 268433732#1 260769492#0 260769492#1 260769358 260769536 260769360 260769527 260769486#2"/>
    </vehicle>
    <vehicle id="65" depart="65.00">
        <route edges="-260769492#1 260769492#1 260769358 260769536 260769360 260769527 260769486#2 260769486#3 -260769486#3"/>
    </vehicle>
    <vehicle id="66" depart="66.00">
        <route edges="-260769486#1 260769486#1 -260769527 -260769360 -260769536 -260769358 -260769492#1 -260769492#0 -268433732#1 -268433732#0 -268434051 -260769522#5 268434207#2 -566509880#1 566509162#3 268434207#5"/>
    </vehicle>
    <vehicle id="67" depart="67.00">
        <route edges="268433734 -268434207#6 -268434207#5 -566509162#3 566509880#1 -268434207#2 260769522#5 268434051 268433732#0 268433732#1 260769492#0 260769492#1 260769358 260769536 260769360 260769527 260769486#2 -566613435#0 -566613412#0"/>
    </vehicle>
    <vehicle id="69" depart="69.00">
        <route edges="-566508356#2 -566508356#1 566509162#0 566509162#1 566509162#2"/>
    </vehicle>
    <vehicle id="70" depart="70.00">
        <route edges="-566613412#0 566613412#0 566613435#0 -260769486#2"/>
    </vehicle>
    <vehicle id="71" depart="71.00">
        <route edges="-260769522#3 260769522#3 -566509162#1 -268434245#1 -268434245#0 -268433976 -268433805#1 -268433805#0 268433805#0 268433805#1 268433976 268434245#0"/>
    </vehicle>
    <vehicle id="72" depart="72.00">
        <route edges="-268434207#1 -268434245#0 -268433976 -268433805#1 -268433805#0 268433805#0 268433805#1 268433976"/>
    </vehicle>
    <vehicle id="73" depart="73.00">
        <route edges="268434207#6 -268434207#6 -566509718#1 -566509718#0 260769522#1 -268434245#2 566509162#1"/>
    </vehicle>
    <vehicle id="74" depart="74.00">
        <route edges="-566508356#2 566508356#2 566508356#3 566508356#4 268434207#8"/>
    </vehicle>
    <vehicle id="75" depart="75.00">
        <route edges="268434245#2 260769522#2 -566509745#1 -566509745#0"/>
    </vehicle>
    <vehicle id="76" depart="76.00">
        <route edges="-268434207#4 -268434207#3 -268434207#2 260769522#5 268434051 268433732#0 268433732#1 260769492#0 260769492#1 260769358 260769536 260769360 260769527 -260769486#1 -260769486#0 -260769486#5 260769486#5 260769486#0"/>
    </vehicle>
    <vehicle id="77" depart="77.00">
        <route edges="268434207#0 268434207#1 260769522#5 268434051 268433732#0 268433732#1 260769492#0 260769492#1 260769358 260769536 260769360 260769527 -260769527 -260769360 -260769536"/>
    </vehicle>
    <vehicle id="78" depart="78.00">
        <route edges="-268434207#3 -268434207#2 260769522#5 268434051 268433732#0 268433732#1 260769492#0 260769492#1 260769358 260769536 260769360 260769527 -260769486#1 260769541#0 260769541#1 -260769541#1"/>
    </vehicle>
    <vehicle id="79" depart="79.00">
        <route edges="-260769522#2 260769522#2"/>
    </vehicle>
    <vehicle id="80" depart="80.00">
        <route edges="-260769492#1 -260769492#0 -268433732#1 -268433732#0 -268434051 -260769522#5 268434207#2 -566509880#1 566509880#1"/>
    </vehicle>
    <vehicle id="82" depart="82.00">
        <route edges="-268434245#1 268434245#1 268434245#2 -260769522#1 566509718#0 566509718#1 -566509718#1"/>
    </vehicle>
    <vehicle id="83" depart="83.00">
        <route edges="268433858#0 268433858#1 -268433858#1 -268433858#0 -268433973 -268434239 -268434207#3 -268434207#2 260769522#5 268434051 268433732#0 268433732#1 -268433732#1 -268433732#0"/>
    </vehicle>
    <vehicle id="84" depart="84.00">
        <route edges="-268434207#10 566508377 -566508356#1 566509162#0 566509162#1"/>
    </vehicle>
    <vehicle id="85" depart="85.00">
        <route edges="268434207#7 -566508356#4 -566508356#3 260769522#0 566509718#0 566509745#0 566509880#0 566509162#3 268434207#5"/>
    </vehicle>
    <vehicle id="86" depart="86.00">
        <route edges="-260769522#2 -260769522#1 260769522#1"/>
    </vehicle>
    <vehicle id="87" depart="87.00">
        <route edges="260769536 260769360 260769527 -260769486#1 170131020 -260769471 312478258#1"/>
    </vehicle>
    <vehicle id="88" depart="88.00">
        <route edges="-260769333 -260769486#3 -566613435#0"/>
    </vehicle>
    <vehicle id="89" depart="89.00">
        <route edges="566613412#1 -260769541#1 -260769541#0 260769486#1 -260769527 -260769360 -260769536 -260769358 -260769492#1 -260769492#0 -268433732#1 -268433732#0 -268434051 -260769522#5 -268434207#1 268434207#1"/>
    </vehicle>
    <vehicle id="90" depart="90.00">
        <route edges="260769522#5 268434051 268433732#0 268433732#1 260769592#4"/>
    </vehicle>
    <vehicle id="91" depart="91.00">
        <route edges="268433858#0 268433858#1 -268433858#1 -268433858#0 -268433973 -268434239 -268434207#3 -268434207#2 -268434207#1 -268434245#0 -268433976 -268433805#1 -268433805#0 268433805#0 268433805#1 268433976"/>
    </vehicle>
    <vehicle id="92" depart="92.00">
        <route edges="-566508356#3 -566508356#2 -566508377"/>
    </vehicle>
    <vehicle id="93" depart="93.00">
        <route edges="-566508356#2 566508356#2 260769522#0 566509718#0 566509718#1 -268434207#5"/>
    </vehicle>
    <vehicle id="94" depart="94.00">
        <route edges="260769492#1 260769358 260769536 260769360 260769527 -260769527 -260769360 -260769536 -260769358 -260769492#1 -260769492#0 -268433732#1 -268433732#0 -268434051 -260769522#5 -268434207#1 -268434207#0 566508356#0"/>
    </vehicle>
    <vehicle id="95" depart="95.00">
        <route edges="-260769541#0 260769486#1 260769486#2 260769486#3 260769333"/>
    </vehicle>
    <vehicle id="96" depart="96.00">
        <route edges="260769486#1 -260769486#1 170131020 260769488"/>
    </vehicle>
    <vehicle id="97" depart="97.00">
        <route edges="-566509162#0 566509162#0 566509162#1 566509162#2 566509162#3 -268434207#4"/>
    </vehicle>
    <vehicle id="98" depart="98.00">
        <route edges="-268434207#5 -566509162#3 566509880#1 -268434207#2 260769522#5 268434051 268433732#0 268433732#1 260769492#0 260769492#1 260769358 260769536 260769360 260769527 260769486#2"/>
    </vehicle>
    <vehicle id="99" depart="99.00">
        <route edges="268433734 -268434207#6 -268434207#5 -566509162#3 566509880#1 -268434207#2 260769522#5 268434051 268433732#0 268433732#1 260769492#0 260769492#1 260769358 260769536 260769360 260769527 260769486#2 260769486#3 -260769486#3"/>
    </vehicle>
</routes>
